/*--------------------------------*- C++ -*----------------------------------*\
| =========                 |                                                 |
| \\      /  F ield         | OpenFOAM: The Open Source CFD Toolbox           |
|  \\    /   O peration     | Version:  2506                                  |
|   \\  /    A nd           | Website:  www.openfoam.com                      |
|    \\/     M anipulation  |                                                 |
\*---------------------------------------------------------------------------*/
FoamFile
{
    version     2.0;
    format      ascii;
    class       volScalarField;
    location    "0/air";
    object      p_rgh;
}
// * * * * * * * * * * * * * * * * * * * * * * * * * * * * * * * * * * * * * //

dimensions      [1 -1 -2 0 0 0 0];

internalField   uniform 100000;

boundaryField
{
    inlet
    {
        type            fixedFluxPressure;
        value           uniform 100000;
    }

    outlet
    {
        type            fixedValue;
        value           uniform 100000;
    }

    walls
    {
        type            fixedFluxPressure;
        value           uniform 100000;
    }

    air_to_solid
    {
        type            fixedFluxPressure;
        value           uniform 100000;
    }
}

// ************************************************************************* //
