/*--------------------------------*- C++ -*----------------------------------*\
| =========                 |                                                 |
| \\      /  F ield         | OpenFOAM: The Open Source CFD Toolbox           |
|  \\    /   O peration     | Version:  2506                                  |
|   \\  /    A nd           | Website:  www.openfoam.com                      |
|    \\/     M anipulation  |                                                 |
\*---------------------------------------------------------------------------*/
FoamFile
{
    version     2.0;
    format      ascii;
    class       volScalarField;
    location    "0/air";
    object      T;
}
// * * * * * * * * * * * * * * * * * * * * * * * * * * * * * * * * * * * * * //

dimensions      [0 0 0 1 0 0 0];

internalField   uniform 300;

boundaryField
{
    inlet
    {
        type            fixedValue;
        value           uniform 300;
    }

    outlet
    {
        type            inletOutlet;
        inletValue      uniform 300;
        value           uniform 300;
    }

    walls
    {
        type            zeroGradient;
    }

    air_to_solid
    {
        type            compressible::turbulentTemperatureCoupledBaffleMixed;
        Tnbr            T;
        kappaMethod     fluidThermo;
        value           uniform 300;
    }
}

// ************************************************************************* //
