/*--------------------------------*- C++ -*----------------------------------*\
| =========                 |                                                 |
| \\      /  F ield         | OpenFOAM: The Open Source CFD Toolbox           |
|  \\    /   O peration     | Version:  2506                                  |
|   \\  /    A nd           | Website:  www.openfoam.com                      |
|    \\/     M anipulation  |                                                 |
\*---------------------------------------------------------------------------*/
FoamFile
{
    version     2.0;
    format      binary;
    arch        "LSB;label=32;scalar=64";
    class       polyBoundaryMesh;
    location    "constant/air/polyMesh";
    object      boundary;
}
// * * * * * * * * * * * * * * * * * * * * * * * * * * * * * * * * * * * * * //

4
(
    inlet
    {
        type            patch;
        nFaces          460;
        startFace       53841;
    }
    outlet
    {
        type            patch;
        nFaces          472;
        startFace       54301;
    }
    walls
    {
        type            wall;
        inGroups        1(wall);
        nFaces          1864;
        startFace       54773;
    }
    air_to_solid
    {
        type            mappedWall;
        inGroups        1(wall);
        nFaces          4872;
        startFace       56637;
        sampleMode      nearestPatchFace;
        sampleRegion    solid;
        samplePatch     solid_to_air;
    }
)

// ************************************************************************* //
